07_CYME/Mocksville_Main_2401.sxst_DSS/Elements/Lines.dss
New Line.254412565 Phases= 1 Bus1=254412557.2     Bus2=254412567.2     Length=54.30  units=m  Spacing=VERTICAL-1-PH-60-1PH wires=['4-ACSR-B-6X1' '4-ACSR-B-6X1']
New Line.264166636 Phases= 1 Bus1=264166633.3     Bus2=254421220.3     Length=154.90 units=m  Spacing=VERTICAL-1-PH-60-1PH wires=['1/0-ACSR-B-6X1' '1/0-ACSR-B-6X1']
New Line.254412211 Phases= 1 Bus1=254412198.1     Bus2=254412213.1     Length=15.49  units=m  Spacing=VERTICAL-1-PH-60-1PH wires=['2-ACSR-B-6X1' '2-ACSR-B-6X1']
New Line.705408106 Phases= 1 Bus1=705408103.2     Bus2=259553544.2     Length=57.58  units=m  Spacing=VERTICAL-1-PH-60-1PH wires=['2-ACSR-B-6X1' '2-ACSR-B-6X1']
New Line.254405896 Phases= 1 Bus1=254405893.2     Bus2=254405898.2     Length=60.93  units=m  Spacing=VERTICAL-1-PH-60-1PH wires=['1/0-ACSR-B-6X1' '2-ACSR-B-6X1']
New Line.262283684 Bus1=262283681.3     Bus2=260110299.3     LineCode=1/0-AL-HMWPECN-25KV Phases= 1 Length=66.95  units=m enable=yes
New Line.264195002 Bus1=260113728.3     Bus2=264195000.3     LineCode=1/0-AL-HMWPECN-25KV Phases= 1 Length=427.40 units=m enable=yes
New Line.705406958 Phases= 3 Bus1=705406955.1.2.3 Bus2=254413008.1.2.3 Length=111.80 units=m  Spacing=8'-ARM-NON-CENTER-POST-3PH wires=['2-ACSR-B-6X1' '2-ACSR-B-6X1' '2-ACSR-B-6X1' '2-ACSR-B-6X1']
New Line.254426533 Phases= 1 Bus1=254426530.2     Bus2=254426535.2     Length=52.56  units=m  Spacing=VERTICAL-1-PH-60-1PH wires=['2-ACSR-B-6X1' '2-ACSR-B-6X1']
New Line.709190002 Phases= 1 Bus1=709189999.1     Bus2=254413250.1     Length=15.53  units=m  Spacing=VERTICAL-1-PH-60-1PH wires=['2-ACSR-B-6X1' '2-ACSR-B-6X1']
New Line.264166672 Phases= 1 Bus1=264166669.3     Bus2=254421026.3     Length=130.90 units=m  Spacing=VERTICAL-1-PH-60-1PH wires=['4-ACSR-B-6X1' '4-ACSR-B-6X1']
New Line.254405691 Phases= 3 Bus1=254405686.1.2.3 Bus2=254405693.1.2.3 Length=93.21  units=m  Spacing=8'-ARM-NON-CENTER-POST-3PH wires=['1/0-ACSR-B-6X1' '1/0-ACSR-B-6X1' '1/0-ACSR-B-6X1' '2-ACSR-B-6X1']
New Line.262285122 Bus1=254412632.2     Bus2=262285124.2     LineCode=1/0-AL-HMWPECN-25KV Phases= 1 Length=1.53   units=m enable=yes
New Line.624251889 Phases= 3 Bus1=624251886.1.2.3 Bus2=254412099.1.2.3 Length=21.67  units=m  Spacing=8'-ARM-NON-CENTER-POST-3PH wires=['336-ACSR-B-18X1' '336-ACSR-B-18X1' '336-ACSR-B-18X1' '1/0-ACSR-B-6X1']
New Line.624252964 Phases= 1 Bus1=264562521.1     Bus2=624252962.1     Length=78.69  units=m  Spacing=VERTICAL-1-PH-60-1PH wires=['2-ACSR-B-6X1' '2-ACSR-B-6X1']
New Line.709189434 Phases= 1 Bus1=709189431.2     Bus2=254420232.2     Length=121.10 units=m  Spacing=VERTICAL-1-PH-60-1PH wires=['2-ACSR-B-6X1' '2-ACSR-B-6X1']
New Line.616213694 Bus1=435572857.2     Bus2=616213696.2     LineCode=1/0-AL-TRXLPE-15KV Phases= 1 Length=1.52   units=m enable=yes
New Line.263870609 Bus1=263870606.2     Bus2=261145107.2     LineCode=1/0-AL-TRXLPELCJ-25KV Phases= 1 Length=77.91  units=m enable=yes
New Line.262283630 Bus1=262283627.1     Bus2=260110269.1     LineCode=1/0-AL-HMWPECN-25KV Phases= 1 Length=58.18  units=m enable=yes
New Line.277736007 Bus1=254406497.1.2.3 Bus2=277736009.1.2.3 LineCode=1/0-AL-HMWPECN-25KV Phases= 3 Length=1.51   units=m enable=yes
New Line.254399581 Phases= 3 Bus1=254399576.1.2.3 Bus2=254399583.1.2.3 Length=19.38  units=m  Spacing=8'-ARM-NON-CENTER-POST-3PH wires=['336-ACSR-B-18X1' '336-ACSR-B-18X1' '336-ACSR-B-18X1' '1/0-ACSR-B-6X1']
New Line.259358232 Phases= 2 Bus1=259358233.2.3   Bus2=254420805.2.3   Length=54.94  units=m  Spacing=8'-ARM-STANDARD-2PH wires=['4-ACSR-B-6X1' '4-ACSR-B-6X1' '4-ACSR-B-6X1']
New Line.263606985 Bus1=259091551.2     Bus2=263606987.2     LineCode=1/0-AL-TRXLPELCJ-25KV Phases= 1 Length=1.52   units=m enable=yes
New Line.263748899 Phases= 1 Bus1=254405492.3     Bus2=263748901.3     Length=1.52   units=m  Spacing=VERTICAL-1-PH-104-1PH wires=['1/0-ACSR-B-6X1' '1/0-ACSR-B-6X1']
New Line.254412201 Phases= 1 Bus1=254412193.1     Bus2=254412203.1     Length=93.82  units=m  Spacing=VERTICAL-1-PH-60-1PH wires=['2-ACSR-B-6X1' '2-ACSR-B-6X1']
New Line.262285095 Phases= 1 Bus1=254412420.1     Bus2=262285097.1     Length=1.52   units=m  Spacing=VERTICAL-1-PH-60-1PH wires=['4-ACSR-B-6X1' '4-ACSR-B-6X1']
New Line.624251929 Phases= 3 Bus1=254412119.1.2.3 Bus2=624251927.1.2.3 Length=99.06  units=m  Spacing=8'-ARM-NON-CENTER-POST-3PH wires=['336-ACSR-B-18X1' '336-ACSR-B-18X1' '336-ACSR-B-18X1' '1/0-ACSR-B-6X1']
New Line.254412236 Phases= 1 Bus1=254412233.2     Bus2=254412238.2     Length=123.50 units=m  Spacing=VERTICAL-1-PH-60-1PH wires=['2-ACSR-B-6X1' '2-ACSR-B-6X1']
New Line.262287130 Phases= 1 Bus1=254420651.3     Bus2=262287132.3     Length=1.52   units=m  Spacing=VERTICAL-1-PH-60-1PH wires=['1/0-ACSR-B-6X1' '1/0-ACSR-B-6X1']
New Line.262287103 Phases= 1 Bus1=254420533.1     Bus2=262287105.1     Length=1.52   units=m  Spacing=VERTICAL-1-PH-60-1PH wires=['2-ACSR-B-6X1' '2-ACSR-B-6X1']
New Line.624324075 Phases= 3 Bus1=624324051.1.2.3 Bus2=624324073.1.2.3 Length=34.49  units=m  Spacing=8'-ARM-STANDARD-3PH wires=['1/0-ACSR-B-6X1' '1/0-ACSR-B-6X1' '1/0-ACSR-B-6X1' '1/0-ACSR-B-6X1']
New Line.260112476 Bus1=260112473.3     Bus2=260112478.3     LineCode=1/0-AL-TRXLPELCJ-25KV Phases= 1 Length=64.61  units=m enable=yes
New Line.260110227 Bus1=260110224.2     Bus2=260110194.2     LineCode=1/0-AL-TRXLPELCJ-25KV Phases= 1 Length=103.40 units=m enable=yes
New Line.263802813 Bus1=254426820.1     Bus2=263802815.1     LineCode=1/0-AL-TRXLPELCJ-25KV Phases= 1 Length=1.52   units=m enable=yes
New Line.254420617 Phases= 2 Bus1=254420599.2.3   Bus2=254420619.2.3   Length=59.92  units=m  Spacing=8'-ARM-STANDARD-2PH wires=['2-ACSR-B-6X1' '2-ACSR-B-6X1' '2-ACSR-B-6X1']
New Line.254406716 Phases= 3 Bus1=254406708.1.2.3 Bus2=254406718.1.2.3 Length=54.06  units=m  Spacing=8'-ARM-NON-CENTER-POST-3PH wires=['336-ACSR-B-18X1' '336-ACSR-B-18X1' '336-ACSR-B-18X1' '1/0-ACSR-B-6X1']
New Line.259547591 Phases= 1 Bus1=254420636.2     Bus2=259547593.2     Length=74.28  units=m  Spacing=VERTICAL-1-PH-104-1PH wires=['2-ACSR-B-6X1' '2-ACSR-B-6X1']
New Line.695105971 Phases= 1 Bus1=695105960.1     Bus2=695105969.1     Length=56.76  units=m  Spacing=VERTICAL-1-PH-60-1PH wires=['1/0-ACSR-B-6X1' '1/0-ACSR-B-6X1']
New Line.616213699 Bus1=616213696.2     Bus2=435572874.2     LineCode=1/0-AL-TRXLPE-15KV Phases= 1 Length=81.62  units=m enable=yes
New Line.616213628 Phases= 3 Bus1=254412363.1.2.3 Bus2=616213626.1.2.3 Length=45.68  units=m  Spacing=8'-ARM-NON-CENTER-POST-3PH wires=['336-ACSR-B-18X1' '336-ACSR-B-18X1' '336-ACSR-B-18X1' '1/0-ACSR-B-6X1']
New Line.435572146 Phases= 3 Bus1=254406543.1.2.3 Bus2=435572145.1.2.3 Length=29.01  units=m  Spacing=8'-ARM-STANDARD-3PH wires=['1/0-ACSR-B-6X1' '1/0-ACSR-B-6X1' '1/0-ACSR-B-6X1' '1/0-ACSR-B-6X1']
New Line.264166591 Phases= 1 Bus1=264166588.1     Bus2=259172911.1     Length=90.61  units=m  Spacing=VERTICAL-1-PH-104-1PH wires=['1/0-ACSR-B-6X1' '1/0-ACSR-B-6X1']
New Line.624252644 Phases= 1 Bus1=262285061.2     Bus2=624252642.2     Length=30.85  units=m  Spacing=VERTICAL-1-PH-60-1PH wires=['1/0-ACSR-B-6X1' '1/0-ACSR-B-6X1']
New Line.624622178 Phases= 3 Bus1=624622070.1.2.3 Bus2=624622176.1.2.3 Length=14.00  units=m  Spacing=8'-ARM-NON-CENTER-POST-3PH wires=['336-ACSR-B-18X1' '336-ACSR-B-18X1' '336-ACSR-B-18X1' '1/0-ACSR-B-6X1']
New Line.254406394 Phases= 3 Bus1=254406391.1.2.3 Bus2=254406396.1.2.3 Length=97.26  units=m  Spacing=8'-ARM-NON-CENTER-POST-3PH wires=['2-ACSR-B-6X1' '2-ACSR-B-6X1' '2-ACSR-B-6X1' '2-ACSR-B-6X1']
New Line.254426588 Phases= 1 Bus1=254426585.3     Bus2=254426590.3     Length=94.93  units=m  Spacing=VERTICAL-1-PH-60-1PH wires=['2-ACSR-B-6X1' '2-ACSR-B-6X1']
New Line.254412787 Phases= 3 Bus1=254412784.1.2.3 Bus2=254412789.1.2.3 Length=111.30 units=m  Spacing=8'-ARM-NON-CENTER-POST-3PH wires=['2-ACSR-B-6X1' '2-ACSR-B-6X1' '2-ACSR-B-6X1' '2-ACSR-B-6X1']
New Line.259545096 Phases= 3 Bus1=254405487.1.2.3 Bus2=254405491.1.2.3 Length=44.61  units=m  Spacing=8'-ARM-NON-CENTER-POST-3PH wires=['336-ACSR-B-18X1' '336-ACSR-B-18X1' '336-ACSR-B-18X1' '1/0-ACSR-B-6X1']
New Line.473903414 Phases= 1 Bus1=254412089.3     Bus2=473903416.3     Length=1.53   units=m  Spacing=VERTICAL-1-PH-60-1PH wires=['2-ACSR-B-6X1' '2-ACSR-B-6X1']
New Line.866104661 Phases= 1 Bus1=254420986.3     Bus2=866104663.3     Length=1.53   units=m  Spacing=VERTICAL-1-PH-60-1PH wires=['4-ACSR-B-6X1' '4-ACSR-B-6X1']
New Line.264592984 Phases= 1 Bus1=264592981.2     Bus2=254420344.2     Length=98.01  units=m  Spacing=VERTICAL-1-PH-60-1PH wires=['2-ACSR-B-6X1' '2-ACSR-B-6X1']
New Line.263748904 Phases= 1 Bus1=263748901.3     Bus2=259253037.3     Length=47.63  units=m  Spacing=VERTICAL-1-PH-104-1PH wires=['1/0-ACSR-B-6X1' '1/0-ACSR-B-6X1']
New Line.261013814 Bus1=261013815.1     Bus2=260989335.1     LineCode=1/0-AL-TRXLPELCJ-25KV Phases= 1 Length=428.50 units=m enable=yes
New Line.254413073 Phases= 3 Bus1=254413070.1.2.3 Bus2=254413075.1.2.3 Length=32.08  units=m  Spacing=8'-ARM-NON-CENTER-POST-3PH wires=['1/0-ACSR-B-6X1' '1/0-ACSR-B-6X1' '1/0-ACSR-B-6X1' '1/0-ACSR-B-6X1']
New Line.254412690 Phases= 1 Bus1=254412687.3     Bus2=254412692.3     Length=102.00 units=m  Spacing=VERTICAL-1-PH-60-1PH wires=['2-ACSR-B-6X1' '2-ACSR-B-6X1']
New Line.705407775 Phases= 1 Bus1=705407581.1     Bus2=705407773.1     Length=87.62  units=m  Spacing=VERTICAL-1-PH-60-1PH wires=['2-ACSR-B-6X1' '2-ACSR-B-6X1']
New Line.624252431 Phases= 1 Bus1=254412462.1     Bus2=624252429.1     Length=80.89  units=m  Spacing=VERTICAL-1-PH-60-1PH wires=['2-ACSR-B-6X1' '2-ACSR-B-6X1']
New Line.263964734 Phases= 3 Bus1=263964731.1.2.3 Bus2=259485180.1.2.3 Length=13.85  units=m  Spacing=8'-ARM-STANDARD-3PH wires=['1/0-ACSR-B-6X1' '1/0-ACSR-B-6X1' '1/0-ACSR-B-6X1' '1/0-ACSR-B-6X1']
New Line.259379888 Phases= 2 Bus1=254420876.2.3   Bus2=254420880.2.3   Length=59.77  units=m  Spacing=8'-ARM-STANDARD-2PH wires=['4-ACSR-B-6X1' '4-ACSR-B-6X1' '4-ACSR-B-6X1']
New Line.263860569 Phases= 1 Bus1=259358233.3     Bus2=263860571.3     Length=1.52   units=m  Spacing=VERTICAL-1-PH-104-1PH wires=['1/0-ACSR-B-6X1' '1/0-ACSR-B-6X1']
New Line.254420255 Phases= 2 Bus1=254420252.1.2   Bus2=254420257.1.2   Length=28.29  units=m  Spacing=8'-ARM-STANDARD-2PH wires=['4-ACSR-B-6X1' '4-ACSR-B-6X1' '4-ACSR-B-6X1']
New Line.254412440 Phases= 1 Bus1=254412441.1     Bus2=254412442.1     Length=60.89  units=m  Spacing=VERTICAL-1-PH-60-1PH wires=['4-ACSR-B-6X1' '4-ACSR-B-6X1']
New Line.262288942 Phases= 1 Bus1=254426910.1     Bus2=262288944.1     Length=1.52   units=m  Spacing=VERTICAL-1-PH-60-1PH wires=['2-ACSR-B-6X1' '2-ACSR-B-6X1']
New Line.263665550 Bus1=263665547.1     Bus2=260883463.1     LineCode=1/0-AL-TRXLPELCJ-25KV Phases= 1 Length=97.63  units=m enable=yes
New Line.624585573 Phases= 1 Bus1=624585570.3     Bus2=254427467.3     Length=12.68  units=m  Spacing=VERTICAL-1-PH-60-1PH wires=['2-ACSR-B-6X1' '2-ACSR-B-6X1']
New Line.705408055 Phases= 1 Bus1=254413180.1     Bus2=705408053.1     Length=131.70 units=m  Spacing=VERTICAL-1-PH-60-1PH wires=['4-ACSR-B-6X1' '4-ACSR-B-6X1']
New Line.263720854 Phases= 1 Bus1=263720851.3     Bus2=259229679.3     Length=42.35  units=m  Spacing=VERTICAL-1-PH-104-1PH wires=['2-ACSR-B-6X1' '2-ACSR-B-6X1']
New Line.435574309 Phases= 1 Bus1=254412789.2     Bus2=435574311.2     Length=1.51   units=m  Spacing=VERTICAL-1-PH-60-1PH wires=['4-ACSR-B-6X1' '4-ACSR-B-6X1']
New Line.624253013 Phases= 1 Bus1=624252962.1     Bus2=624253011.1     Length=124.80 units=m  Spacing=VERTICAL-1-PH-60-1PH wires=['2-ACSR-B-6X1' '2-ACSR-B-6X1']
New Line.259553538 Phases= 1 Bus1=259553539.2     Bus2=259553534.2     Length=138.90 units=m  Spacing=VERTICAL-1-PH-60-1PH wires=['2-ACSR-B-6X1' '2-ACSR-B-6X1']
New Line.254412475 Phases= 1 Bus1=254412472.1     Bus2=254412477.1     Length=69.09  units=m  Spacing=VERTICAL-1-PH-60-1PH wires=['4-ACSR-B-6X1' '4-ACSR-B-6X1']
New Line.263801386 Phases= 1 Bus1=263801383.1     Bus2=259298819.1     Length=20.02  units=m  Spacing=VERTICAL-1-PH-104-1PH wires=['1/0-ACSR-B-6X1' '1/0-ACSR-B-6X1']
New Line.624259892 Phases= 1 Bus1=264425491.1     Bus2=624259890.1     Length=21.76  units=m  Spacing=VERTICAL-1-PH-60-1PH wires=['2-ACSR-B-6X1' '2-ACSR-B-6X1']
New Line.617703472 Phases= 1 Bus1=254399452.2     Bus2=617703474.2     Length=1.54   units=m  Spacing=VERTICAL-1-PH-60-1PH wires=['2-ACSR-B-6X1' '2-ACSR-B-6X1']
New Line.872042986 Phases= 2 Bus1=254420589.2.3   Bus2=872042984.2.3   Length=57.47  units=m  Spacing=8'-ARM-STANDARD-2PH wires=['4-ACSR-B-6X1' '4-ACSR-B-6X1' '4-ACSR-B-6X1']
New Line.254406411 Phases= 3 Bus1=254406406.1.2.3 Bus2=254406413.1.2.3 Length=68.97  units=m  Spacing=8'-ARM-NON-CENTER-POST-3PH wires=['1/0-ACSR-B-6X1' '1/0-ACSR-B-6X1' '1/0-ACSR-B-6X1' '1/0-ACSR-B-6X1']
New Line.254412418 Phases= 3 Bus1=254412415.1.2.3 Bus2=254412420.1.2.3 Length=45.88  units=m  Spacing=8'-ARM-NON-CENTER-POST-3PH wires=['336-ACSR-B-18X1' '336-ACSR-B-18X1' '336-ACSR-B-18X1' '1/0-ACSR-B-6X1']
New Line.254420080 Phases= 2 Bus1=254420062.1.2   Bus2=254420082.1.2   Length=85.71  units=m  Spacing=8'-ARM-STANDARD-2PH wires=['4-ACSR-B-6X1' '4-ACSR-B-6X1' '4-ACSR-B-6X1']
New Line.262289022 Bus1=262289019.3     Bus2=260113618.3     LineCode=1/0-AL-HMWPECN-25KV Phases= 1 Length=105.40 units=m enable=yes
New Line.254426818 Phases= 1 Bus1=254426815.1     Bus2=254426820.1     Length=108.90 units=m  Spacing=VERTICAL-1-PH-60-1PH wires=['2-ACSR-B-6X1' '2-ACSR-B-6X1']
New Line.254406026 Phases= 1 Bus1=254406013.2     Bus2=254406028.2     Length=46.06  units=m  Spacing=VERTICAL-1-PH-60-1PH wires=['1/0-ACSR-B-6X1' '1/0-ACSR-B-6X1']
New Line.254412872 Phases= 1 Bus1=254412864.2     Bus2=254412874.2     Length=18.85  units=m  Spacing=VERTICAL-1-PH-60-1PH wires=['2-ACSR-B-6X1' '2-ACSR-B-6X1']
New Line.259322398 Phases= 3 Bus1=259322399.1.2.3 Bus2=254399461.1.2.3 Length=44.38  units=m  Spacing=8'-ARM-NON-CENTER-POST-3PH wires=['336-ACSR-B-18X1' '336-ACSR-B-18X1' '336-ACSR-B-18X1' '1/0-ACSR-B-6X1']
New Line.263722549 Phases= 1 Bus1=254412163.2     Bus2=263722551.2     Length=1.52   units=m  Spacing=VERTICAL-1-PH-60-1PH wires=['2-ACSR-B-6X1' '2-ACSR-B-6X1']
New Line.260113761 Bus1=260113758.2     Bus2=260113763.2     LineCode=1/0-AL-TRXLPELCJ-25KV Phases= 1 Length=180.90 units=m enable=yes
New Line.705407323 Phases= 3 Bus1=254421230.1.2.3 Bus2=705407321.1.2.3 Length=59.62  units=m  Spacing=8'-ARM-NON-CENTER-POST-3PH wires=['1/0-ACSR-B-6X1' '1/0-ACSR-B-6X1' '1/0-ACSR-B-6X1' '2-ACSR-B-6X1']
New Line.624252903 Phases= 2 Bus1=624252900.1.2   Bus2=254426760.1.2   Length=21.09  units=m  Spacing=8'-ARM-STANDARD-2PH wires=['1/0-ACSR-B-6X1' '1/0-ACSR-B-6X1' '1/0-ACSR-B-6X1']
New Line.262287229 Bus1=254421086.3     Bus2=262287231.3     LineCode=1/0-AL-HMWPECN-25KV Phases= 1 Length=1.52   units=m enable=yes
New Line.624622330 Phases= 3 Bus1=259322384.1.2.3 Bus2=624622328.1.2.3 Length=17.98  units=m  Spacing=8'-ARM-NON-CENTER-POST-3PH wires=['336-ACSR-B-18X1' '336-ACSR-B-18X1' '336-ACSR-B-18X1' '1/0-ACSR-B-6X1']
New Line.254413041 Phases= 3 Bus1=254413038.1.2.3 Bus2=254413043.1.2.3 Length=26.05  units=m  Spacing=8'-ARM-NON-CENTER-POST-3PH wires=['2-ACSR-B-6X1' '2-ACSR-B-6X1' '2-ACSR-B-6X1' '2-ACSR-B-6X1']
New Line.259131193 Phases= 3 Bus1=254420538.1.2.3 Bus2=254420547.1.2.3 Length=24.49  units=m  Spacing=8'-ARM-NON-CENTER-POST-3PH wires=['4-ACSR-B-6X1' '4-ACSR-B-6X1' '4-ACSR-B-6X1' '4-ACSR-B-6X1']
New Line.264194669 Bus1=260110254.1.2.3 Bus2=264194667.1.2.3 LineCode=1/0-AL-HMWPECN-25KV Phases= 3 Length=103.70 units=m enable=yes
New Line.262288990 Bus1=254426995.1     Bus2=262288992.1     LineCode=1/0-AL-HMWPECN-25KV Phases= 1 Length=1.53   units=m enable=yes
New Line.254406218 Phases= 1 Bus1=254406215.3     Bus2=254406220.3     Length=43.80  units=m  Spacing=VERTICAL-1-PH-60-1PH wires=['1/0-ACSR-B-6X1' '2-ACSR-B-6X1']
New Line.254420322 Phases= 2 Bus1=254420319.1.2   Bus2=254420324.1.2   Length=6.85   units=m  Spacing=8'-ARM-STANDARD-2PH wires=['4-ACSR-B-6X1' '4-ACSR-B-6X1' '4-ACSR-B-6X1']
New Line.254420607 Phases= 1 Bus1=254420604.3     Bus2=254420609.3     Length=112.60 units=m  Spacing=VERTICAL-1-PH-60-1PH wires=['2-ACSR-B-6X1' '2-ACSR-B-6X1']
New Line.254405746 Phases= 1 Bus1=254405743.1     Bus2=254405748.1     Length=23.67  units=m  Spacing=VERTICAL-1-PH-60-1PH wires=['1/0-ACSR-B-6X1' '1/0-ACSR-B-6X1']
New Line.259555147 Phases= 2 Bus1=259555148.2.3   Bus2=259358233.2.3   Length=50.15  units=m  Spacing=8'-ARM-STANDARD-2PH wires=['4-ACSR-B-6X1' '4-ACSR-B-6X1' '4-ACSR-B-6X1']
New Line.254413068 Phases= 3 Bus1=254413063.1.2.3 Bus2=254413070.1.2.3 Length=132.10 units=m  Spacing=8'-ARM-NON-CENTER-POST-3PH wires=['1/0-ACSR-B-6X1' '1/0-ACSR-B-6X1' '1/0-ACSR-B-6X1' '1/0-ACSR-B-6X1']
New Line.709190081 Phases= 1 Bus1=709190078.1     Bus2=254413195.1     Length=13.92  units=m  Spacing=VERTICAL-1-PH-60-1PH wires=['2-ACSR-B-6X1' '2-ACSR-B-6X1']
New Line.262287193 Bus1=254420831.2     Bus2=262287195.2     LineCode=1/0-AL-HMWPECN-25KV Phases= 1 Length=1.53   units=m enable=yes
New Line.254420402 Phases= 1 Bus1=254420399.1     Bus2=254420404.1     Length=56.85  units=m  Spacing=VERTICAL-1-PH-60-1PH wires=['2-ACSR-B-6X1' '2-ACSR-B-6X1']
New Line.261072205 Bus1=261072206.1     Bus2=261072207.1     LineCode=1/0-AL-TRXLPELCJ-25KV Phases= 1 Length=72.25  units=m enable=yes
New Line.254413278 Phases= 1 Bus1=254413275.1     Bus2=254413280.1     Length=39.96  units=m  Spacing=VERTICAL-1-PH-60-1PH wires=['2-ACSR-B-6X1' '2-ACSR-B-6X1']
New Line.705407472 Phases= 3 Bus1=254421281.1.2.3 Bus2=705407470.1.2.3 Length=48.21  units=m  Spacing=8'-ARM-NON-CENTER-POST-3PH wires=['1/0-ACSR-B-6X1' '1/0-ACSR-B-6X1' '1/0-ACSR-B-6X1' '2-ACSR-B-6X1']
New Line.254406198 Phases= 1 Bus1=254406195.3     Bus2=254406200.3     Length=45.25  units=m  Spacing=VERTICAL-1-PH-60-1PH wires=['1/0-ACSR-B-6X1' '2-ACSR-B-6X1']
New Line.254406091 Phases= 1 Bus1=254406083.2     Bus2=254406093.2     Length=31.70  units=m  Spacing=VERTICAL-1-PH-60-1PH wires=['1/0-ACSR-B-6X1' '1/0-ACSR-B-6X1']
New Line.872043645 Phases= 1 Bus1=254420931.2     Bus2=872043643.2     Length=69.06  units=m  Spacing=VERTICAL-1-PH-60-1PH wires=['1/0-ACSR-B-6X1' '1/0-ACSR-B-6X1']
New Line.705407903 Phases= 1 Bus1=705407900.1     Bus2=254413160.1     Length=126.90 units=m  Spacing=VERTICAL-1-PH-60-1PH wires=['2-ACSR-B-6X1' '2-ACSR-B-6X1']
New Line.254406061 Phases= 1 Bus1=254406058.2     Bus2=254406063.2     Length=26.89  units=m  Spacing=VERTICAL-1-PH-60-1PH wires=['1/0-ACSR-B-6X1' '1/0-ACSR-B-6X1']
New Line.261280513 Bus1=260112428.3     Bus2=261280515.3     LineCode=1/0-AL-TRXLPELCJ-25KV Phases= 1 Length=10.29  units=m enable=yes
New Line.254406310 Phases= 1 Bus1=254406307.3     Bus2=254406312.3     Length=41.16  units=m  Spacing=VERTICAL-1-PH-60-1PH wires=['1/0-ACSR-B-6X1' '2-ACSR-B-6X1']
New Line.709188987 Phases= 1 Bus1=264161564.2     Bus2=709188985.2     Length=74.61  units=m  Spacing=VERTICAL-1-PH-60-1PH wires=['2-ACSR-B-6X1' '2-ACSR-B-6X1']
New Line.624622200 Phases= 3 Bus1=624622197.1.2.3 Bus2=624622112.1.2.3 Length=60.03  units=m  Spacing=8'-ARM-NON-CENTER-POST-3PH wires=['336-ACSR-B-18X1' '336-ACSR-B-18X1' '336-ACSR-B-18X1' '1/0-ACSR-B-6X1']
New Line.254420265 Phases= 2 Bus1=254420262.1.2   Bus2=254420267.1.2   Length=125.90 units=m  Spacing=8'-ARM-STANDARD-2PH wires=['2-ACSR-B-6X1' '2-ACSR-B-6X1' '2-ACSR-B-6X1']
New Line.872043038 Phases= 1 Bus1=872043021.3     Bus2=872043036.3     Length=18.98  units=m  Spacing=VERTICAL-1-PH-104-1PH wires=['1/0-ACSR-B-6X1' '1/0-ACSR-B-6X1']
New Line.695134820 Phases= 3 Bus1=695134817.1.2.3 Bus2=695134810.1.2.3 Length=43.34  units=m  Spacing=8'-ARM-NON-CENTER-POST-3PH wires=['336-ACSR-B-18X1' '336-ACSR-B-18X1' '336-ACSR-B-18X1' '1/0-ACSR-B-6X1']
New Line.260112456 Bus1=260112453.3     Bus2=260112458.3     LineCode=1/0-AL-TRXLPELCJ-25KV Phases= 1 Length=108.60 units=m enable=yes
New Line.624622072 Phases= 3 Bus1=264592963.1.2.3 Bus2=624622070.1.2.3 Length=7.74   units=m  Spacing=8'-ARM-NON-CENTER-POST-3PH wires=['336-ACSR-B-18X1' '336-ACSR-B-18X1' '336-ACSR-B-18X1' '1/0-ACSR-B-6X1']
New Line.262285046 Phases= 1 Bus1=262285043.2     Bus2=254412228.2     Length=19.94  units=m  Spacing=VERTICAL-1-PH-60-1PH wires=['2-ACSR-B-6X1' '2-ACSR-B-6X1']
New Line.620619634 Phases= 1 Bus1=254427351.3     Bus2=620619632.3     Length=19.06  units=m  Spacing=VERTICAL-1-PH-60-1PH wires=['4-ACSR-B-6X1' '4-ACSR-B-6X1']
New Line.254426903 Phases= 1 Bus1=254426850.1     Bus2=254426905.1     Length=193.40 units=m  Spacing=VERTICAL-1-PH-60-1PH wires=['4-ACSR-B-6X1' '4-ACSR-B-6X1']
New Line.259550671 Phases= 1 Bus1=254420057.2     Bus2=259550673.2     Length=45.36  units=m  Spacing=VERTICAL-1-PH-60-1PH wires=['2-ACSR-B-6X1' '2-ACSR-B-6X1']
New Line.262287076 Phases= 1 Bus1=254420429.1     Bus2=262287078.1     Length=1.52   units=m  Spacing=VERTICAL-1-PH-60-1PH wires=['4-ACSR-B-6X1' '4-ACSR-B-6X1']
New Line.261041357 Bus1=261041358.2     Bus2=261041353.2     LineCode=1/0-AL-HMWPECN-25KV Phases= 1 Length=88.05  units=m enable=yes
New Line.254405567 Phases= 3 Bus1=254405564.1.2.3 Bus2=254405569.1.2.3 Length=16.28  units=m  Spacing=8'-ARM-STANDARD-3PH wires=['2-ACSR-B-6X1' '2-ACSR-B-6X1' '2-ACSR-B-6X1' '2-ACSR-B-6X1']
New Line.254427460 Phases= 1 Bus1=254427457.3     Bus2=254427462.3     Length=52.10  units=m  Spacing=VERTICAL-1-PH-60-1PH wires=['2-ACSR-B-6X1' '2-ACSR-B-6X1']
New Line.262283486 Phases= 3 Bus1=262283483.1.2.3 Bus2=254405594.1.2.3 Length=47.51  units=m  Spacing=8'-ARM-NON-CENTER-POST-3PH wires=['2-ACSR-B-6X1' '2-ACSR-B-6X1' '2-ACSR-B-6X1' '2-ACSR-B-6X1']
New Line.695105571 Phases= 1 Bus1=695105568.1     Bus2=254427110.1     Length=70.01  units=m  Spacing=VERTICAL-1-PH-60-1PH wires=['2-ACSR-B-6X1' '2-ACSR-B-6X1']
New Line.254405761 Phases= 1 Bus1=254405753.1     Bus2=254405763.1     Length=38.40  units=m  Spacing=VERTICAL-1-PH-60-1PH wires=['1/0-ACSR-B-6X1' '1/0-ACSR-B-6X1']
New Line.705406455 Phases= 1 Bus1=705406452.3     Bus2=254426620.3     Length=125.20 units=m  Spacing=VERTICAL-1-PH-60-1PH wires=['2-ACSR-B-6X1' '2-ACSR-B-6X1']
New Line.872043116 Phases= 2 Bus1=254420614.2.3   Bus2=872043114.2.3   Length=27.40  units=m  Spacing=8'-ARM-STANDARD-2PH wires=['2-ACSR-B-6X1' '2-ACSR-B-6X1' '2-ACSR-B-6X1']
New Line.254405911 Phases= 1 Bus1=254405908.2     Bus2=254405913.2     Length=17.63  units=m  Spacing=VERTICAL-1-PH-60-1PH wires=['1/0-ACSR-B-6X1' '2-ACSR-B-6X1']
New Line.260110132 Bus1=260110129.2     Bus2=260110134.2     LineCode=1/0-AL-HMWPECN-25KV Phases= 1 Length=25.89  units=m enable=yes
New Line.254420422 Phases= 3 Bus1=254420419.1.2.3 Bus2=254420424.1.2.3 Length=40.65  units=m  Spacing=8'-ARM-NON-CENTER-POST-3PH wires=['2-ACSR-B-6X1' '2-ACSR-B-6X1' '2-ACSR-B-6X1' '2-ACSR-B-6X1']
New Line.262285068 Phases= 1 Bus1=254412358.2     Bus2=262285070.2     Length=1.53   units=m  Spacing=VERTICAL-1-PH-60-1PH wires=['4-ACSR-B-6X1' '4-ACSR-B-6X1']
New Line.254426693 Phases= 1 Bus1=254426690.1     Bus2=254426695.1     Length=84.97  units=m  Spacing=VERTICAL-1-PH-60-1PH wires=['1/0-ACSR-WP-6X1' '1/0-ACSR-WP-6X1']
New Line.254406315 Phases= 1 Bus1=254406312.3     Bus2=254406317.3     Length=43.75  units=m  Spacing=VERTICAL-1-PH-60-1PH wires=['1/0-ACSR-B-6X1' '2-ACSR-B-6X1']
New Line.435571829 Phases= 1 Bus1=435571827.3     Bus2=254406611.3     Length=61.74  units=m  Spacing=VERTICAL-1-PH-60-1PH wires=['2-ACSR-B-6X1' '2-ACSR-B-6X1']
New Line.254420095 Phases= 2 Bus1=254420087.1.2   Bus2=254420097.1.2   Length=103.40 units=m  Spacing=8'-ARM-STANDARD-2PH wires=['4-ACSR-B-6X1' '4-ACSR-B-6X1' '4-ACSR-B-6X1']
New Line.705407516 Phases= 3 Bus1=705407513.1.2.3 Bus2=254426520.1.2.3 Length=86.78  units=m  Spacing=8'-ARM-NON-CENTER-POST-3PH wires=['1/0-ACSR-B-6X1' '1/0-ACSR-B-6X1' '1/0-ACSR-B-6X1' '2-ACSR-B-6X1']
New Line.263802818 Bus1=263802815.1     Bus2=261072116.1     LineCode=1/0-AL-TRXLPELCJ-25KV Phases= 1 Length=114.20 units=m enable=yes
New Line.254406421 Phases= 3 Bus1=254406418.1.2.3 Bus2=254406423.1.2.3 Length=59.46  units=m  Spacing=8'-ARM-NON-CENTER-POST-3PH wires=['1/0-ACSR-B-6X1' '1/0-ACSR-B-6X1' '1/0-ACSR-B-6X1' '1/0-ACSR-B-6X1']
New Line.262288960 Phases= 1 Bus1=254426955.1     Bus2=262288962.1     Length=1.53   units=m  Spacing=VERTICAL-1-PH-60-1PH wires=['2-ACSR-B-6X1' '2-ACSR-B-6X1']
New Line.709189877 Phases= 1 Bus1=709189864.1     Bus2=709189875.1     Length=37.96  units=m  Spacing=VERTICAL-1-PH-60-1PH wires=['2-ACSR-B-6X1' '2-ACSR-B-6X1']
New Line.254412956 Phases= 3 Bus1=254412929.1.2.3 Bus2=254412958.1.2.3 Length=49.98  units=m  Spacing=8'-ARM-NON-CENTER-POST-3PH wires=['2-ACSR-B-6X1' '2-ACSR-B-6X1' '2-ACSR-B-6X1' '2-ACSR-B-6X1']
New Line.705407421 Phases= 3 Bus1=705407418.1.2.3 Bus2=705407407.1.2.3 Length=56.66  units=m  Spacing=8'-ARM-STANDARD-3PH wires=['1/0-ACSR-B-6X1' '1/0-ACSR-B-6X1' '1/0-ACSR-B-6X1' '1/0-ACSR-B-6X1']
New Line.399243260 Phases= 1 Bus1=399243256.2     Bus2=399243244.2     Length=21.25  units=m  Spacing=VERTICAL-1-PH-60-1PH wires=['2-ACSR-B-6X1' '2-ACSR-B-6X1']
New Line.254412630 Phases= 1 Bus1=254412631.2     Bus2=254412632.2     Length=68.80  units=m  Spacing=VERTICAL-1-PH-60-1PH wires=['2-ACSR-B-6X1' '2-ACSR-B-6X1']
New Line.264294872 Bus1=260110164.2     Bus2=264294869.2     LineCode=1/0-AL-HMWPECN-25KV Phases= 1 Length=102.00 units=m enable=yes
New Line.254427223 Phases= 1 Bus1=254427220.3     Bus2=254427225.3     Length=23.21  units=m  Spacing=VERTICAL-1-PH-60-1PH wires=['2-ACSR-B-6X1' '2-ACSR-B-6X1']
New Line.620619244 Phases= 1 Bus1=254427402.3     Bus2=620619242.3     Length=65.87  units=m  Spacing=VERTICAL-1-PH-60-1PH wires=['4-ACSR-B-6X1' '4-ACSR-B-6X1']
New Line.872042837 Phases= 1 Bus1=254420656.2     Bus2=872042835.2     Length=64.70  units=m  Spacing=VERTICAL-1-PH-60-1PH wires=['2-ACSR-B-6X1' '2-ACSR-B-6X1']
New Line.254427295 Phases= 1 Bus1=254427285.1     Bus2=254427297.1     Length=20.20  units=m  Spacing=VERTICAL-1-PH-60-1PH wires=['2-ACSR-B-6X1' '2-ACSR-B-6X1']
New Line.263810212 Bus1=263810209.1     Bus2=261079014.1     LineCode=1/0-AL-TRXLPELCJ-25KV Phases= 1 Length=182.60 units=m enable=yes
New Line.263722563 Phases= 3 Bus1=263722560.1.2.3 Bus2=254412075.1.2.3 Length=37.78  units=m  Spacing=8'-ARM-NON-CENTER-POST-3PH wires=['1/0-ACSR-B-6X1' '1/0-ACSR-B-6X1' '4-ACSR-B-6X1' '4-ACSR-B-6X1']
New Line.709189963 Phases= 3 Bus1=709189960.1.2.3 Bus2=709189949.1.2.3 Length=49.62  units=m  Spacing=8'-ARM-NON-CENTER-POST-3PH wires=['2-ACSR-B-6X1' '2-ACSR-B-6X1' '2-ACSR-B-6X1' '2-ACSR-B-6X1']
New Line.695105304 Phases= 2 Bus1=254420334.1.2   Bus2=695105302.1.2   Length=107.50 units=m  Spacing=8'-ARM-STANDARD-2PH wires=['4-ACSR-B-6X1' '4-ACSR-B-6X1' '4-ACSR-B-6X1']
New Line.254420774 Phases= 2 Bus1=254420746.2.3   Bus2=254420776.2.3   Length=19.92  units=m  Spacing=8'-ARM-STANDARD-2PH wires=['4-ACSR-B-6X1' '4-ACSR-B-6X1' '4-ACSR-B-6X1']
New Line.624585354 Phases= 1 Bus1=624585351.3     Bus2=254399511.3     Length=15.41  units=m  Spacing=VERTICAL-1-PH-60-1PH wires=['1/0-ACSR-B-6X1' '2-ACSR-B-6X1']
New Line.254426683 Phases= 2 Bus1=254426680.1.2   Bus2=254426685.1.2   Length=34.31  units=m  Spacing=8'-ARM-STANDARD-2PH wires=['1/0-ACSR-B-6X1' '1/0-ACSR-B-6X1' '1/0-ACSR-B-6X1']
New Line.254405941 Phases= 1 Bus1=254405938.2     Bus2=254405943.2     Length=28.81  units=m  Spacing=VERTICAL-1-PH-60-1PH wires=['1/0-ACSR-B-6X1' '2-ACSR-B-6X1']
New Line.254413228 Phases= 1 Bus1=254413220.1     Bus2=254413230.1     Length=64.07  units=m  Spacing=VERTICAL-1-PH-60-1PH wires=['2-ACSR-B-6X1' '2-ACSR-B-6X1']
New Line.624259597 Phases= 3 Bus1=254412173.1.2.3 Bus2=624259595.1.2.3 Length=54.93  units=m  Spacing=8'-ARM-NON-CENTER-POST-3PH wires=['336-ACSR-B-18X1' '336-ACSR-B-18X1' '336-ACSR-B-18X1' '1/0-ACSR-B-6X1']
New Line.709189616 Phases= 3 Bus1=254420429.1.2.3 Bus2=709189614.1.2.3 Length=42.59  units=m  Spacing=8'-ARM-NON-CENTER-POST-3PH wires=['2-ACSR-B-6X1' '2-ACSR-B-6X1' '2-ACSR-B-6X1' '2-ACSR-B-6X1']
New Line.254420270 Phases= 1 Bus1=254420262.1     Bus2=254420272.1     Length=92.39  units=m  Spacing=VERTICAL-1-PH-60-1PH wires=['2-ACSR-B-6X1' '2-ACSR-B-6X1']
New Line.259404957 Phases= 1 Bus1=254426655.3     Bus2=254426659.3     Length=74.21  units=m  Spacing=VERTICAL-1-PH-60-1PH wires=['2-ACSR-B-6X1' '2-ACSR-B-6X1']
New Line.262283657 Bus1=262283654.1     Bus2=260110289.1     LineCode=1/0-AL-HMWPECN-25KV Phases= 1 Length=201.00 units=m enable=yes
New Line.254405669 Phases= 3 Bus1=254405666.1.2.3 Bus2=254405671.1.2.3 Length=18.98  units=m  Spacing=8'-ARM-NON-CENTER-POST-3PH wires=['336-ACSR-B-18X1' '336-ACSR-B-18X1' '336-ACSR-B-18X1' '1/0-ACSR-B-6X1']
New Line.264166663 Phases= 1 Bus1=264166660.3     Bus2=254420981.3     Length=59.60  units=m  Spacing=VERTICAL-1-PH-60-1PH wires=['4-ACSR-B-6X1' '4-ACSR-B-6X1']
New Line.254412837 Phases= 1 Bus1=254412834.2     Bus2=254412839.2     Length=88.41  units=m  Spacing=VERTICAL-1-PH-60-1PH wires=['2-ACSR-B-6X1' '2-ACSR-B-6X1']
New Line.263852154 Bus1=263852151.3     Bus2=261125170.3     LineCode=1/0-AL-TRXLPELCJ-25KV Phases= 1 Length=57.83  units=m enable=yes
New Line.254427068 Phases= 1 Bus1=254427055.1     Bus2=254427070.1     Length=102.40 units=m  Spacing=VERTICAL-1-PH-60-1PH wires=['2-ACSR-B-6X1' '2-ACSR-B-6X1']
New Line.624259723 Phases= 3 Bus1=624259712.1.2.3 Bus2=624259721.1.2.3 Length=48.47  units=m  Spacing=8'-ARM-NON-CENTER-POST-3PH wires=['336-ACSR-B-18X1' '336-ACSR-B-18X1' '336-ACSR-B-18X1' '1/0-ACSR-B-6X1']
New Line.261303883 Bus1=261177689.2     Bus2=261177683.2     LineCode=1/0-AL-TRXLPELCJ-25KV Phases= 1 Length=74.90  units=m enable=yes
New Line.254406136 Phases= 1 Bus1=254406133.2     Bus2=254406138.2     Length=63.33  units=m  Spacing=VERTICAL-1-PH-60-1PH wires=['1/0-ACSR-B-6X1' '1/0-ACSR-B-6X1']
New Line.705406813 Phases= 3 Bus1=705406810.1.2.3 Bus2=254412963.1.2.3 Length=89.47  units=m  Spacing=8'-ARM-NON-CENTER-POST-3PH wires=['2-ACSR-B-6X1' '2-ACSR-B-6X1' '2-ACSR-B-6X1' '2-ACSR-B-6X1']
New Line.616213629 Phases= 3 Bus1=616213626.1.2.3 Bus2=254412373.1.2.3 Length=36.49  units=m  Spacing=8'-ARM-NON-CENTER-POST-3PH wires=['336-ACSR-B-18X1' '336-ACSR-B-18X1' '336-ACSR-B-18X1' '1/0-ACSR-B-6X1']
New Line.263631445 Bus1=254405958.2     Bus2=263631447.2     LineCode=1/0-AL-TRXLPELCJ-25KV Phases= 1 Length=1.52   units=m enable=yes
New Line.254405619 Phases= 3 Bus1=254405616.1.2.3 Bus2=254405621.1.2.3 Length=31.34  units=m  Spacing=8'-ARM-NON-CENTER-POST-3PH wires=['336-ACSR-B-18X1' '336-ACSR-B-18X1' '336-ACSR-B-18X1' '1/0-ACSR-B-6X1']
New Line.254405664 Phases= 3 Bus1=254405651.1.2.3 Bus2=254405666.1.2.3 Length=41.46  units=m  Spacing=8'-ARM-NON-CENTER-POST-3PH wires=['336-ACSR-B-18X1' '336-ACSR-B-18X1' '336-ACSR-B-18X1' '1/0-ACSR-B-6X1']
New Line.254420531 Phases= 3 Bus1=254420528.1.2.3 Bus2=254420533.1.2.3 Length=159.40 units=m  Spacing=8'-ARM-NON-CENTER-POST-3PH wires=['4-ACSR-B-6X1' '4-ACSR-B-6X1' '4-ACSR-B-6X1' '4-ACSR-B-6X1']
New Line.264562519 Phases= 1 Bus1=254426769.1     Bus2=264562521.1     Length=1.52   units=m  Spacing=VERTICAL-1-PH-60-1PH wires=['2-ACSR-B-6X1' '2-ACSR-B-6X1']
New Line.254426888 Phases= 1 Bus1=254426885.1     Bus2=254426890.1     Length=87.38  units=m  Spacing=VERTICAL-1-PH-60-1PH wires=['2-ACSR-B-6X1' '2-ACSR-B-6X1']
New Line.254420794 Phases= 2 Bus1=254420795.2.3   Bus2=254420796.2.3   Length=51.84  units=m  Spacing=8'-ARM-STANDARD-2PH wires=['4-ACSR-B-6X1' '4-ACSR-B-6X1' '4-ACSR-B-6X1']
New Line.254406263 Phases= 1 Bus1=254406255.3     Bus2=254406265.3     Length=39.16  units=m  Spacing=VERTICAL-1-PH-60-1PH wires=['1/0-ACSR-B-6X1' '2-ACSR-B-6X1']
New Line.260110157 Bus1=260110154.2     Bus2=260110159.2     LineCode=1/0-AL-HMWPECN-25KV Phases= 1 Length=127.30 units=m enable=yes
New Line.260038368 Phases= 1 Bus1=254412622.2     Bus2=254412631.2     Length=68.78  units=m  Spacing=VERTICAL-1-PH-60-1PH wires=['2-ACSR-B-6X1' '2-ACSR-B-6X1']
New Line.709190224 Phases= 1 Bus1=254421151.3     Bus2=709190222.3     Length=292.90 units=m  Spacing=VERTICAL-1-PH-60-1PH wires=['4-ACSR-B-6X1' '4-ACSR-B-6X1']
New Line.254405634 Phases= 3 Bus1=254405631.1.2.3 Bus2=254405636.1.2.3 Length=24.04  units=m  Spacing=8'-ARM-NON-CENTER-POST-3PH wires=['336-ACSR-B-18X1' '336-ACSR-B-18X1' '336-ACSR-B-18X1' '1/0-ACSR-B-6X1']
New Line.260944690 Bus1=260113693.3     Bus2=260944692.3     LineCode=1/0-AL-TRXLPELCJ-25KV Phases= 1 Length=123.70 units=m enable=yes
New Line.254413372 Phases= 3 Bus1=254413369.1.2.3 Bus2=254413374.1.2.3 Length=38.99  units=m  Spacing=8'-ARM-NON-CENTER-POST-3PH wires=['2-ACSR-B-6X1' '2-ACSR-B-6X1' '2-ACSR-B-6X1' '2-ACSR-B-6X1']
New Line.254405721 Phases= 3 Bus1=254405708.1.2.3 Bus2=254405723.1.2.3 Length=109.40 units=m  Spacing=8'-ARM-NON-CENTER-POST-3PH wires=['1/0-ACSR-B-6X1' '1/0-ACSR-B-6X1' '1/0-ACSR-B-6X1' '2-ACSR-B-6X1']
New Line.254406248 Phases= 1 Bus1=254406240.3     Bus2=254406250.3     Length=10.63  units=m  Spacing=VERTICAL-1-PH-60-1PH wires=['1/0-ACSR-B-6X1' '2-ACSR-B-6X1']
New Line.260113626 Bus1=260113623.3     Bus2=260113628.3     LineCode=1/0-AL-HMWPECN-25KV Phases= 1 Length=97.53  units=m enable=yes
New Line.277736000 Bus1=262283600.1.2.3 Bus2=277735998.1.2.3 LineCode=1/0-AL-HMWPECN-25KV Phases= 3 Length=22.10  units=m enable=yes
New Line.624252412 Phases= 1 Bus1=254412452.1     Bus2=624252410.1     Length=81.90  units=m  Spacing=VERTICAL-1-PH-60-1PH wires=['4-ACSR-B-6X1' '4-ACSR-B-6X1']
New Line.263790642 Phases= 1 Bus1=263790639.1     Bus2=259289841.1     Length=20.02  units=m  Spacing=VERTICAL-1-PH-60-1PH wires=['1/0-ACSR-B-6X1' '1/0-ACSR-B-6X1']
New Line.709189538 Phases= 1 Bus1=264425572.2     Bus2=709189536.2     Length=46.34  units=m  Spacing=VERTICAL-1-PH-60-1PH wires=['2-ACSR-B-6X1' '2-ACSR-B-6X1']
New Line.254406478 Phases= 3 Bus1=254406475.1.2.3 Bus2=254406480.1.2.3 Length=55.40  units=m  Spacing=8'-ARM-NON-CENTER-POST-3PH wires=['2-ACSR-B-6X1' '2-ACSR-B-6X1' '2-ACSR-B-6X1' '2-ACSR-B-6X1']
...
