07_CYME/Mocksville_Main_2401.sxst_DSS/Elements/Loads.dss
New Load.254406290_3 Bus1=254406290.3 Phases=1 kV=13.8564 kW=20.000000 yearly=YearlyC daily=DailyC kVAR=2.000000
New Load.254412323_2 Bus1=254412323.2 Phases=1 kV=13.8564 kW=20.000000 yearly=YearlyB daily=DailyB kVAR=2.000000
New Load.254399468_2 Bus1=254399468.2 Phases=1 kV=13.8564 kW=20.000000 yearly=YearlyB daily=DailyB kVAR=2.000000
New Load.260111218_3 Bus1=260111218.3 Phases=1 kV=13.8564 kW=20.000000 yearly=YearlyC daily=DailyC kVAR=2.000000
New Load.254405998_2 Bus1=254405998.2 Phases=1 kV=13.8564 kW=20.000000 yearly=YearlyB daily=DailyB kVAR=2.000000
New Load.260113598_1 Bus1=260113598.1 Phases=1 kV=13.8564 kW=20.000000 yearly=YearlyA daily=DailyA kVAR=2.000000
New Load.260979190_2 Bus1=260979190.2 Phases=1 kV=13.8564 kW=20.000000 yearly=YearlyB daily=DailyB kVAR=2.000000
New Load.254420619_1 Bus1=254420619.1 Phases=1 kV=13.8564 kW=20.000000 yearly=YearlyA daily=DailyA kVAR=2.000000
New Load.254420619_2 Bus1=254420619.2 Phases=1 kV=13.8564 kW=20.000000 yearly=YearlyB daily=DailyB kVAR=2.000000
New Load.254420619_3 Bus1=254420619.3 Phases=1 kV=13.8564 kW=20.000000 yearly=YearlyC daily=DailyC kVAR=2.000000
New Load.254420162_2 Bus1=254420162.2 Phases=1 kV=13.8564 kW=20.000000 yearly=YearlyB daily=DailyB kVAR=2.000000
New Load.260979255_2 Bus1=260979255.2 Phases=1 kV=13.8564 kW=20.000000 yearly=YearlyB daily=DailyB kVAR=2.000000
New Load.254420436_1 Bus1=254420436.1 Phases=1 kV=13.8564 kW=20.000000 yearly=YearlyA daily=DailyA kVAR=2.000000
New Load.260113608_1 Bus1=260113608.1 Phases=1 kV=13.8564 kW=20.000000 yearly=YearlyA daily=DailyA kVAR=2.000000
New Load.254399451_1 Bus1=254399451.1 Phases=1 kV=13.8564 kW=20.000000 yearly=YearlyA daily=DailyA kVAR=2.000000
New Load.254406003_2 Bus1=254406003.2 Phases=1 kV=13.8564 kW=20.000000 yearly=YearlyB daily=DailyB kVAR=2.000000
New Load.254421130_3 Bus1=254421130.3 Phases=1 kV=13.8564 kW=20.000000 yearly=YearlyC daily=DailyC kVAR=2.000000
New Load.254413205_1 Bus1=254413205.1 Phases=1 kV=13.8564 kW=20.000000 yearly=YearlyA daily=DailyA kVAR=2.000000
New Load.254426595_3 Bus1=254426595.3 Phases=1 kV=13.8564 kW=20.000000 yearly=YearlyC daily=DailyC kVAR=2.000000
New Load.254420172_1 Bus1=254420172.1 Phases=1 kV=13.8564 kW=20.000000 yearly=YearlyA daily=DailyA kVAR=2.000000
New Load.254412754_1 Bus1=254412754.1 Phases=1 kV=13.8564 kW=20.000000 yearly=YearlyA daily=DailyA kVAR=2.000000
New Load.254420287_1 Bus1=254420287.1 Phases=1 kV=13.8564 kW=20.000000 yearly=YearlyA daily=DailyA kVAR=2.000000
New Load.254420287_2 Bus1=254420287.2 Phases=1 kV=13.8564 kW=20.000000 yearly=YearlyB daily=DailyB kVAR=2.000000
New Load.254412233_2 Bus1=254412233.2 Phases=1 kV=13.8564 kW=20.000000 yearly=YearlyB daily=DailyB kVAR=2.000000
New Load.254421249_1 Bus1=254421249.1 Phases=1 kV=13.8564 kW=20.000000 yearly=YearlyA daily=DailyA kVAR=2.000000
New Load.254399550_1 Bus1=254399550.1 Phases=1 kV=13.8564 kW=20.000000 yearly=YearlyA daily=DailyA kVAR=2.000000
New Load.254427105_1 Bus1=254427105.1 Phases=1 kV=13.8564 kW=20.000000 yearly=YearlyA daily=DailyA kVAR=2.000000
New Load.254413175_1 Bus1=254413175.1 Phases=1 kV=13.8564 kW=20.000000 yearly=YearlyA daily=DailyA kVAR=2.000000
New Load.254406433_1 Bus1=254406433.1 Phases=1 kV=13.8564 kW=20.000000 yearly=YearlyA daily=DailyA kVAR=2.000000
New Load.254406470_1 Bus1=254406470.1 Phases=1 kV=13.8564 kW=20.000000 yearly=YearlyA daily=DailyA kVAR=2.000000
New Load.254406470_2 Bus1=254406470.2 Phases=1 kV=13.8564 kW=20.000000 yearly=YearlyB daily=DailyB kVAR=2.000000
New Load.254406470_3 Bus1=254406470.3 Phases=1 kV=13.8564 kW=20.000000 yearly=YearlyC daily=DailyC kVAR=2.000000
New Load.260112408_2 Bus1=260112408.2 Phases=1 kV=13.8564 kW=20.000000 yearly=YearlyB daily=DailyB kVAR=2.000000
New Load.254420896_2 Bus1=254420896.2 Phases=1 kV=13.8564 kW=20.000000 yearly=YearlyB daily=DailyB kVAR=2.000000
New Load.435573842_3 Bus1=435573842.3 Phases=1 kV=13.8564 kW=20.000000 yearly=YearlyC daily=DailyC kVAR=2.000000
New Load.254420042_2 Bus1=254420042.2 Phases=1 kV=13.8564 kW=20.000000 yearly=YearlyB daily=DailyB kVAR=2.000000
New Load.260113763_2 Bus1=260113763.2 Phases=1 kV=13.8564 kW=20.000000 yearly=YearlyB daily=DailyB kVAR=2.000000
New Load.254405713_2 Bus1=254405713.2 Phases=1 kV=13.8564 kW=20.000000 yearly=YearlyB daily=DailyB kVAR=2.000000
New Load.260110214_2 Bus1=260110214.2 Phases=1 kV=13.8564 kW=20.000000 yearly=YearlyB daily=DailyB kVAR=2.000000
New Load.435572751_1 Bus1=435572751.1 Phases=1 kV=13.8564 kW=20.000000 yearly=YearlyA daily=DailyA kVAR=2.000000
New Load.254413340_1 Bus1=254413340.1 Phases=1 kV=13.8564 kW=20.000000 yearly=YearlyA daily=DailyA kVAR=2.000000
New Load.259358233_3 Bus1=259358233.3 Phases=1 kV=13.8564 kW=20.000000 yearly=YearlyC daily=DailyC kVAR=2.000000
New Load.254413063_2 Bus1=254413063.2 Phases=1 kV=13.8564 kW=20.000000 yearly=YearlyB daily=DailyB kVAR=2.000000
New Load.261013805_1 Bus1=261013805.1 Phases=1 kV=13.8564 kW=20.000000 yearly=YearlyA daily=DailyA kVAR=2.000000
New Load.254420202_1 Bus1=254420202.1 Phases=1 kV=13.8564 kW=20.000000 yearly=YearlyA daily=DailyA kVAR=2.000000
New Load.259482594_2 Bus1=259482594.2 Phases=1 kV=13.8564 kW=20.000000 yearly=YearlyB daily=DailyB kVAR=2.000000
New Load.254405460_3 Bus1=254405460.3 Phases=1 kV=13.8564 kW=20.000000 yearly=YearlyC daily=DailyC kVAR=2.000000
New Load.261041338_2 Bus1=261041338.2 Phases=1 kV=13.8564 kW=20.000000 yearly=YearlyB daily=DailyB kVAR=2.000000
New Load.254405828_1 Bus1=254405828.1 Phases=1 kV=13.8564 kW=20.000000 yearly=YearlyA daily=DailyA kVAR=2.000000
New Load.254406631_2 Bus1=254406631.2 Phases=1 kV=13.8564 kW=20.000000 yearly=YearlyB daily=DailyB kVAR=2.000000
New Load.254412692_3 Bus1=254412692.3 Phases=1 kV=13.8564 kW=20.000000 yearly=YearlyC daily=DailyC kVAR=2.000000
New Load.254420816_2 Bus1=254420816.2 Phases=1 kV=13.8564 kW=20.000000 yearly=YearlyB daily=DailyB kVAR=2.000000
New Load.260987816_1 Bus1=260987816.1 Phases=1 kV=13.8564 kW=20.000000 yearly=YearlyA daily=DailyA kVAR=2.000000
New Load.260111273_1 Bus1=260111273.1 Phases=1 kV=13.8564 kW=20.000000 yearly=YearlyA daily=DailyA kVAR=2.000000
New Load.260111273_2 Bus1=260111273.2 Phases=1 kV=13.8564 kW=20.000000 yearly=YearlyB daily=DailyB kVAR=2.000000
New Load.260111273_3 Bus1=260111273.3 Phases=1 kV=13.8564 kW=20.000000 yearly=YearlyC daily=DailyC kVAR=2.000000
New Load.254412934_3 Bus1=254412934.3 Phases=1 kV=13.8564 kW=20.000000 yearly=YearlyC daily=DailyC kVAR=2.000000
New Load.254427075_1 Bus1=254427075.1 Phases=1 kV=13.8564 kW=20.000000 yearly=YearlyA daily=DailyA kVAR=2.000000
New Load.254421225_3 Bus1=254421225.3 Phases=1 kV=13.8564 kW=20.000000 yearly=YearlyC daily=DailyC kVAR=2.000000
New Load.254426645_3 Bus1=254426645.3 Phases=1 kV=13.8564 kW=20.000000 yearly=YearlyC daily=DailyC kVAR=2.000000
New Load.254405738_1 Bus1=254405738.1 Phases=1 kV=13.8564 kW=20.000000 yearly=YearlyA daily=DailyA kVAR=2.000000
New Load.254405898_2 Bus1=254405898.2 Phases=1 kV=13.8564 kW=20.000000 yearly=YearlyB daily=DailyB kVAR=2.000000
New Load.261103821_1 Bus1=261103821.1 Phases=1 kV=13.8564 kW=20.000000 yearly=YearlyA daily=DailyA kVAR=2.000000
New Load.254426635_3 Bus1=254426635.3 Phases=1 kV=13.8564 kW=20.000000 yearly=YearlyC daily=DailyC kVAR=2.000000
New Load.260112468_3 Bus1=260112468.3 Phases=1 kV=13.8564 kW=20.000000 yearly=YearlyC daily=DailyC kVAR=2.000000
New Load.254405524_1 Bus1=254405524.1 Phases=1 kV=13.8564 kW=20.000000 yearly=YearlyA daily=DailyA kVAR=2.000000
New Load.254406554_1 Bus1=254406554.1 Phases=1 kV=13.8564 kW=20.000000 yearly=YearlyA daily=DailyA kVAR=2.000000
New Load.254406554_2 Bus1=254406554.2 Phases=1 kV=13.8564 kW=20.000000 yearly=YearlyB daily=DailyB kVAR=2.000000
New Load.254406554_3 Bus1=254406554.3 Phases=1 kV=13.8564 kW=20.000000 yearly=YearlyC daily=DailyC kVAR=2.000000
New Load.261177709_2 Bus1=261177709.2 Phases=1 kV=13.8564 kW=20.000000 yearly=YearlyB daily=DailyB kVAR=2.000000
New Load.254426585_3 Bus1=254426585.3 Phases=1 kV=13.8564 kW=20.000000 yearly=YearlyC daily=DailyC kVAR=2.000000
New Load.254406396_1 Bus1=254406396.1 Phases=1 kV=13.8564 kW=20.000000 yearly=YearlyA daily=DailyA kVAR=2.000000
New Load.254406396_2 Bus1=254406396.2 Phases=1 kV=13.8564 kW=20.000000 yearly=YearlyB daily=DailyB kVAR=2.000000
New Load.254406396_3 Bus1=254406396.3 Phases=1 kV=13.8564 kW=20.000000 yearly=YearlyC daily=DailyC kVAR=2.000000
New Load.260989305_1 Bus1=260989305.1 Phases=1 kV=13.8564 kW=20.000000 yearly=YearlyA daily=DailyA kVAR=2.000000
New Load.260108569_1 Bus1=260108569.1 Phases=1 kV=13.8564 kW=20.000000 yearly=YearlyA daily=DailyA kVAR=2.000000
New Load.260108569_2 Bus1=260108569.2 Phases=1 kV=13.8564 kW=20.000000 yearly=YearlyB daily=DailyB kVAR=2.000000
New Load.260108569_3 Bus1=260108569.3 Phases=1 kV=13.8564 kW=20.000000 yearly=YearlyC daily=DailyC kVAR=2.000000
New Load.254405768_1 Bus1=254405768.1 Phases=1 kV=13.8564 kW=20.000000 yearly=YearlyA daily=DailyA kVAR=2.000000
New Load.254421106_3 Bus1=254421106.3 Phases=1 kV=13.8564 kW=20.000000 yearly=YearlyC daily=DailyC kVAR=2.000000
New Load.254412338_2 Bus1=254412338.2 Phases=1 kV=13.8564 kW=20.000000 yearly=YearlyB daily=DailyB kVAR=2.000000
New Load.260989320_1 Bus1=260989320.1 Phases=1 kV=13.8564 kW=20.000000 yearly=YearlyA daily=DailyA kVAR=2.000000
New Load.259118275_3 Bus1=259118275.3 Phases=1 kV=13.8564 kW=20.000000 yearly=YearlyC daily=DailyC kVAR=2.000000
New Load.254421021_3 Bus1=254421021.3 Phases=1 kV=13.8564 kW=20.000000 yearly=YearlyC daily=DailyC kVAR=2.000000
New Load.254427250_3 Bus1=254427250.3 Phases=1 kV=13.8564 kW=20.000000 yearly=YearlyC daily=DailyC kVAR=2.000000
New Load.254412392_2 Bus1=254412392.2 Phases=1 kV=13.8564 kW=20.000000 yearly=YearlyB daily=DailyB kVAR=2.000000
New Load.260113573_1 Bus1=260113573.1 Phases=1 kV=13.8564 kW=20.000000 yearly=YearlyA daily=DailyA kVAR=2.000000
New Load.261131358_3 Bus1=261131358.3 Phases=1 kV=13.8564 kW=20.000000 yearly=YearlyC daily=DailyC kVAR=2.000000
New Load.254426740_1 Bus1=254426740.1 Phases=1 kV=13.8564 kW=20.000000 yearly=YearlyA daily=DailyA kVAR=2.000000
New Load.254421136_1 Bus1=254421136.1 Phases=1 kV=13.8564 kW=20.000000 yearly=YearlyA daily=DailyA kVAR=2.000000
New Load.260111243_3 Bus1=260111243.3 Phases=1 kV=13.8564 kW=20.000000 yearly=YearlyC daily=DailyC kVAR=2.000000
New Load.254426955_1 Bus1=254426955.1 Phases=1 kV=13.8564 kW=20.000000 yearly=YearlyA daily=DailyA kVAR=2.000000
New Load.254420528_3 Bus1=254420528.3 Phases=1 kV=13.8564 kW=20.000000 yearly=YearlyC daily=DailyC kVAR=2.000000
New Load.254421071_3 Bus1=254421071.3 Phases=1 kV=13.8564 kW=20.000000 yearly=YearlyC daily=DailyC kVAR=2.000000
New Load.260848164_2 Bus1=260848164.2 Phases=1 kV=13.8564 kW=20.000000 yearly=YearlyB daily=DailyB kVAR=2.000000
New Load.260113593_1 Bus1=260113593.1 Phases=1 kV=13.8564 kW=20.000000 yearly=YearlyA daily=DailyA kVAR=2.000000
New Load.260111253_3 Bus1=260111253.3 Phases=1 kV=13.8564 kW=20.000000 yearly=YearlyC daily=DailyC kVAR=2.000000
New Load.254421161_3 Bus1=254421161.3 Phases=1 kV=13.8564 kW=20.000000 yearly=YearlyC daily=DailyC kVAR=2.000000
New Load.254427312_3 Bus1=254427312.3 Phases=1 kV=13.8564 kW=20.000000 yearly=YearlyC daily=DailyC kVAR=2.000000
New Load.254420676_2 Bus1=254420676.2 Phases=1 kV=13.8564 kW=20.000000 yearly=YearlyB daily=DailyB kVAR=2.000000
New Load.254420841_2 Bus1=254420841.2 Phases=1 kV=13.8564 kW=20.000000 yearly=YearlyB daily=DailyB kVAR=2.000000
New Load.472630180_2 Bus1=472630180.2 Phases=1 kV=13.8564 kW=20.000000 yearly=YearlyB daily=DailyB kVAR=2.000000
New Load.254412532_2 Bus1=254412532.2 Phases=1 kV=13.8564 kW=20.000000 yearly=YearlyB daily=DailyB kVAR=2.000000
New Load.261059305_2 Bus1=261059305.2 Phases=1 kV=13.8564 kW=20.000000 yearly=YearlyB daily=DailyB kVAR=2.000000
New Load.254412405_1 Bus1=254412405.1 Phases=1 kV=13.8564 kW=20.000000 yearly=YearlyA daily=DailyA kVAR=2.000000
New Load.254406275_3 Bus1=254406275.3 Phases=1 kV=13.8564 kW=20.000000 yearly=YearlyC daily=DailyC kVAR=2.000000
New Load.254399536_3 Bus1=254399536.3 Phases=1 kV=13.8564 kW=20.000000 yearly=YearlyC daily=DailyC kVAR=2.000000
New Load.260942452_3 Bus1=260942452.3 Phases=1 kV=13.8564 kW=20.000000 yearly=YearlyC daily=DailyC kVAR=2.000000
New Load.254406713_3 Bus1=254406713.3 Phases=1 kV=13.8564 kW=20.000000 yearly=YearlyC daily=DailyC kVAR=2.000000
New Load.254406220_3 Bus1=254406220.3 Phases=1 kV=13.8564 kW=20.000000 yearly=YearlyC daily=DailyC kVAR=2.000000
New Load.254405883_2 Bus1=254405883.2 Phases=1 kV=13.8564 kW=20.000000 yearly=YearlyB daily=DailyB kVAR=2.000000
New Load.254399571_3 Bus1=254399571.3 Phases=1 kV=13.8564 kW=20.000000 yearly=YearlyC daily=DailyC kVAR=2.000000
New Load.254412963_3 Bus1=254412963.3 Phases=1 kV=13.8564 kW=20.000000 yearly=YearlyC daily=DailyC kVAR=2.000000
New Load.254427487_1 Bus1=254427487.1 Phases=1 kV=13.8564 kW=20.000000 yearly=YearlyA daily=DailyA kVAR=2.000000
New Load.254427487_2 Bus1=254427487.2 Phases=1 kV=13.8564 kW=20.000000 yearly=YearlyB daily=DailyB kVAR=2.000000
New Load.254427487_3 Bus1=254427487.3 Phases=1 kV=13.8564 kW=20.000000 yearly=YearlyC daily=DailyC kVAR=2.000000
New Load.254406250_3 Bus1=254406250.3 Phases=1 kV=13.8564 kW=20.000000 yearly=YearlyC daily=DailyC kVAR=2.000000
New Load.254421178_1 Bus1=254421178.1 Phases=1 kV=13.8564 kW=20.000000 yearly=YearlyA daily=DailyA kVAR=2.000000
New Load.260110254_1 Bus1=260110254.1 Phases=1 kV=13.8564 kW=20.000000 yearly=YearlyA daily=DailyA kVAR=2.000000
New Load.260110254_2 Bus1=260110254.2 Phases=1 kV=13.8564 kW=20.000000 yearly=YearlyB daily=DailyB kVAR=2.000000
New Load.260110254_3 Bus1=260110254.3 Phases=1 kV=13.8564 kW=20.000000 yearly=YearlyC daily=DailyC kVAR=2.000000
New Load.695011098_1 Bus1=695011098.1 Phases=1 kV=13.8564 kW=20.000000 yearly=YearlyA daily=DailyA kVAR=2.000000
New Load.254427337_1 Bus1=254427337.1 Phases=1 kV=13.8564 kW=20.000000 yearly=YearlyA daily=DailyA kVAR=2.000000
New Load.261177689_2 Bus1=261177689.2 Phases=1 kV=13.8564 kW=20.000000 yearly=YearlyB daily=DailyB kVAR=2.000000
New Load.260113637_3 Bus1=260113637.3 Phases=1 kV=13.8564 kW=20.000000 yearly=YearlyC daily=DailyC kVAR=2.000000
New Load.254420666_2 Bus1=254420666.2 Phases=1 kV=13.8564 kW=20.000000 yearly=YearlyB daily=DailyB kVAR=2.000000
New Load.254427145_3 Bus1=254427145.3 Phases=1 kV=13.8564 kW=20.000000 yearly=YearlyC daily=DailyC kVAR=2.000000
New Load.254406038_2 Bus1=254406038.2 Phases=1 kV=13.8564 kW=20.000000 yearly=YearlyB daily=DailyB kVAR=2.000000
New Load.254426880_1 Bus1=254426880.1 Phases=1 kV=13.8564 kW=20.000000 yearly=YearlyA daily=DailyA kVAR=2.000000
New Load.254412253_2 Bus1=254412253.2 Phases=1 kV=13.8564 kW=20.000000 yearly=YearlyB daily=DailyB kVAR=2.000000
New Load.254412373_3 Bus1=254412373.3 Phases=1 kV=13.8564 kW=20.000000 yearly=YearlyC daily=DailyC kVAR=2.000000
New Load.254420966_2 Bus1=254420966.2 Phases=1 kV=13.8564 kW=20.000000 yearly=YearlyB daily=DailyB kVAR=2.000000
New Load.260111223_3 Bus1=260111223.3 Phases=1 kV=13.8564 kW=20.000000 yearly=YearlyC daily=DailyC kVAR=2.000000
New Load.254426730_1 Bus1=254426730.1 Phases=1 kV=13.8564 kW=20.000000 yearly=YearlyA daily=DailyA kVAR=2.000000
New Load.260113668_3 Bus1=260113668.3 Phases=1 kV=13.8564 kW=20.000000 yearly=YearlyC daily=DailyC kVAR=2.000000
New Load.254406576_1 Bus1=254406576.1 Phases=1 kV=13.8564 kW=20.000000 yearly=YearlyA daily=DailyA kVAR=2.000000
New Load.254420307_2 Bus1=254420307.2 Phases=1 kV=13.8564 kW=20.000000 yearly=YearlyB daily=DailyB kVAR=2.000000
New Load.254421050_3 Bus1=254421050.3 Phases=1 kV=13.8564 kW=20.000000 yearly=YearlyC daily=DailyC kVAR=2.000000
New Load.254412622_2 Bus1=254412622.2 Phases=1 kV=13.8564 kW=20.000000 yearly=YearlyB daily=DailyB kVAR=2.000000
New Load.254412572_2 Bus1=254412572.2 Phases=1 kV=13.8564 kW=20.000000 yearly=YearlyB daily=DailyB kVAR=2.000000
New Load.254412794_2 Bus1=254412794.2 Phases=1 kV=13.8564 kW=20.000000 yearly=YearlyB daily=DailyB kVAR=2.000000
New Load.254420696_3 Bus1=254420696.3 Phases=1 kV=13.8564 kW=20.000000 yearly=YearlyC daily=DailyC kVAR=2.000000
New Load.616213606_2 Bus1=616213606.2 Phases=1 kV=13.8564 kW=20.000000 yearly=YearlyB daily=DailyB kVAR=2.000000
New Load.254412919_3 Bus1=254412919.3 Phases=1 kV=13.8564 kW=20.000000 yearly=YearlyC daily=DailyC kVAR=2.000000
New Load.254406023_2 Bus1=254406023.2 Phases=1 kV=13.8564 kW=20.000000 yearly=YearlyB daily=DailyB kVAR=2.000000
New Load.260111278_1 Bus1=260111278.1 Phases=1 kV=13.8564 kW=20.000000 yearly=YearlyA daily=DailyA kVAR=2.000000
New Load.254420508_3 Bus1=254420508.3 Phases=1 kV=13.8564 kW=20.000000 yearly=YearlyC daily=DailyC kVAR=2.000000
New Load.260889661_1 Bus1=260889661.1 Phases=1 kV=13.8564 kW=20.000000 yearly=YearlyA daily=DailyA kVAR=2.000000
New Load.260889661_2 Bus1=260889661.2 Phases=1 kV=13.8564 kW=20.000000 yearly=YearlyB daily=DailyB kVAR=2.000000
New Load.260889661_3 Bus1=260889661.3 Phases=1 kV=13.8564 kW=20.000000 yearly=YearlyC daily=DailyC kVAR=2.000000
New Load.254413028_3 Bus1=254413028.3 Phases=1 kV=13.8564 kW=20.000000 yearly=YearlyC daily=DailyC kVAR=2.000000
New Load.259368692_2 Bus1=259368692.2 Phases=1 kV=13.8564 kW=20.000000 yearly=YearlyB daily=DailyB kVAR=2.000000
New Load.254420577_2 Bus1=254420577.2 Phases=1 kV=13.8564 kW=20.000000 yearly=YearlyB daily=DailyB kVAR=2.000000
New Load.254405963_2 Bus1=254405963.2 Phases=1 kV=13.8564 kW=20.000000 yearly=YearlyB daily=DailyB kVAR=2.000000
New Load.254406646_2 Bus1=254406646.2 Phases=1 kV=13.8564 kW=20.000000 yearly=YearlyB daily=DailyB kVAR=2.000000
New Load.254405928_2 Bus1=254405928.2 Phases=1 kV=13.8564 kW=20.000000 yearly=YearlyB daily=DailyB kVAR=2.000000
New Load.254406225_3 Bus1=254406225.3 Phases=1 kV=13.8564 kW=20.000000 yearly=YearlyC daily=DailyC kVAR=2.000000
New Load.254420052_2 Bus1=254420052.2 Phases=1 kV=13.8564 kW=20.000000 yearly=YearlyB daily=DailyB kVAR=2.000000
New Load.254420429_1 Bus1=254420429.1 Phases=1 kV=13.8564 kW=20.000000 yearly=YearlyA daily=DailyA kVAR=2.000000
New Load.254406718_2 Bus1=254406718.2 Phases=1 kV=13.8564 kW=20.000000 yearly=YearlyB daily=DailyB kVAR=2.000000
New Load.254421016_3 Bus1=254421016.3 Phases=1 kV=13.8564 kW=20.000000 yearly=YearlyC daily=DailyC kVAR=2.000000
New Load.254413330_1 Bus1=254413330.1 Phases=1 kV=13.8564 kW=20.000000 yearly=YearlyA daily=DailyA kVAR=2.000000
New Load.254426945_1 Bus1=254426945.1 Phases=1 kV=13.8564 kW=20.000000 yearly=YearlyA daily=DailyA kVAR=2.000000
New Load.254421203_1 Bus1=254421203.1 Phases=1 kV=13.8564 kW=20.000000 yearly=YearlyA daily=DailyA kVAR=2.000000
New Load.254421203_2 Bus1=254421203.2 Phases=1 kV=13.8564 kW=20.000000 yearly=YearlyB daily=DailyB kVAR=2.000000
New Load.254421203_3 Bus1=254421203.3 Phases=1 kV=13.8564 kW=20.000000 yearly=YearlyC daily=DailyC kVAR=2.000000
New Load.254427030_1 Bus1=254427030.1 Phases=1 kV=13.8564 kW=20.000000 yearly=YearlyA daily=DailyA kVAR=2.000000
New Load.254405499_2 Bus1=254405499.2 Phases=1 kV=13.8564 kW=20.000000 yearly=YearlyB daily=DailyB kVAR=2.000000
New Load.254399551_2 Bus1=254399551.2 Phases=1 kV=13.8564 kW=20.000000 yearly=YearlyB daily=DailyB kVAR=2.000000
New Load.254426659_3 Bus1=254426659.3 Phases=1 kV=13.8564 kW=20.000000 yearly=YearlyC daily=DailyC kVAR=2.000000
New Load.254420486_1 Bus1=254420486.1 Phases=1 kV=13.8564 kW=20.000000 yearly=YearlyA daily=DailyA kVAR=2.000000
New Load.260111283_1 Bus1=260111283.1 Phases=1 kV=13.8564 kW=20.000000 yearly=YearlyA daily=DailyA kVAR=2.000000
New Load.254427541_3 Bus1=254427541.3 Phases=1 kV=13.8564 kW=20.000000 yearly=YearlyC daily=DailyC kVAR=2.000000
New Load.254420675_2 Bus1=254420675.2 Phases=1 kV=13.8564 kW=20.000000 yearly=YearlyB daily=DailyB kVAR=2.000000
New Load.254426930_1 Bus1=254426930.1 Phases=1 kV=13.8564 kW=20.000000 yearly=YearlyA daily=DailyA kVAR=2.000000
New Load.254420212_1 Bus1=254420212.1 Phases=1 kV=13.8564 kW=20.000000 yearly=YearlyA daily=DailyA kVAR=2.000000
New Load.254420771_2 Bus1=254420771.2 Phases=1 kV=13.8564 kW=20.000000 yearly=YearlyB daily=DailyB kVAR=2.000000
New Load.254405823_1 Bus1=254405823.1 Phases=1 kV=13.8564 kW=20.000000 yearly=YearlyA daily=DailyA kVAR=2.000000
New Load.261079014_1 Bus1=261079014.1 Phases=1 kV=13.8564 kW=20.000000 yearly=YearlyA daily=DailyA kVAR=2.000000
New Load.261041348_2 Bus1=261041348.2 Phases=1 kV=13.8564 kW=20.000000 yearly=YearlyB daily=DailyB kVAR=2.000000
New Load.254420661_2 Bus1=254420661.2 Phases=1 kV=13.8564 kW=20.000000 yearly=YearlyB daily=DailyB kVAR=2.000000
New Load.260111233_3 Bus1=260111233.3 Phases=1 kV=13.8564 kW=20.000000 yearly=YearlyC daily=DailyC kVAR=2.000000
New Load.254405544_3 Bus1=254405544.3 Phases=1 kV=13.8564 kW=20.000000 yearly=YearlyC daily=DailyC kVAR=2.000000
New Load.260868299_3 Bus1=260868299.3 Phases=1 kV=13.8564 kW=20.000000 yearly=YearlyC daily=DailyC kVAR=2.000000
New Load.254406492_2 Bus1=254406492.2 Phases=1 kV=13.8564 kW=20.000000 yearly=YearlyB daily=DailyB kVAR=2.000000
New Load.254427200_3 Bus1=254427200.3 Phases=1 kV=13.8564 kW=20.000000 yearly=YearlyC daily=DailyC kVAR=2.000000
New Load.254427377_1 Bus1=254427377.1 Phases=1 kV=13.8564 kW=20.000000 yearly=YearlyA daily=DailyA kVAR=2.000000
New Load.260113768_1 Bus1=260113768.1 Phases=1 kV=13.8564 kW=20.000000 yearly=YearlyA daily=DailyA kVAR=2.000000
New Load.260113768_2 Bus1=260113768.2 Phases=1 kV=13.8564 kW=20.000000 yearly=YearlyB daily=DailyB kVAR=2.000000
New Load.260113768_3 Bus1=260113768.3 Phases=1 kV=13.8564 kW=20.000000 yearly=YearlyC daily=DailyC kVAR=2.000000
New Load.254421041_3 Bus1=254421041.3 Phases=1 kV=13.8564 kW=20.000000 yearly=YearlyC daily=DailyC kVAR=2.000000
New Load.254427045_1 Bus1=254427045.1 Phases=1 kV=13.8564 kW=20.000000 yearly=YearlyA daily=DailyA kVAR=2.000000
New Load.260893627_2 Bus1=260893627.2 Phases=1 kV=13.8564 kW=20.000000 yearly=YearlyB daily=DailyB kVAR=2.000000
New Load.254421116_3 Bus1=254421116.3 Phases=1 kV=13.8564 kW=20.000000 yearly=YearlyC daily=DailyC kVAR=2.000000
New Load.254426605_3 Bus1=254426605.3 Phases=1 kV=13.8564 kW=20.000000 yearly=YearlyC daily=DailyC kVAR=2.000000
New Load.254427135_1 Bus1=254427135.1 Phases=1 kV=13.8564 kW=20.000000 yearly=YearlyA daily=DailyA kVAR=2.000000
New Load.260110149_2 Bus1=260110149.2 Phases=1 kV=13.8564 kW=20.000000 yearly=YearlyB daily=DailyB kVAR=2.000000
New Load.254413185_1 Bus1=254413185.1 Phases=1 kV=13.8564 kW=20.000000 yearly=YearlyA daily=DailyA kVAR=2.000000
New Load.399243272_2 Bus1=399243272.2 Phases=1 kV=13.8564 kW=20.000000 yearly=YearlyB daily=DailyB kVAR=2.000000
New Load.254412869_2 Bus1=254412869.2 Phases=1 kV=13.8564 kW=20.000000 yearly=YearlyB daily=DailyB kVAR=2.000000
...
